Hello,
Test Repo

New line.

Another line
